LTspice 24.0.12 for Windows
Circuit: * C:\Users\NAGARAJ V REDDY\Documents\NES\1SEM\ICBC\GIT\Oscillator\quadrature_phase_ring_oscillator.asc
Start Time: Tue Feb 25 17:42:34 2025
solver = Normal
Maximum thread count: 16
tnom = 27
temp = 27
method = modified trap
Direct Newton iteration for .op point succeeded.

t1: time=1.9888e-09 at 1.9888e-09
t2: time=2.34499e-09 at 2.34499e-09
t: t2-t1=3.56194e-10
freq: 1/t=2.80746e+09

Total elapsed time: 0.441 seconds.

