LTspice 24.0.12 for Windows
Circuit: * C:\Users\NAGARAJ V REDDY\Documents\NES\1SEM\ICBC\GIT\Common_Gate_and_Common_Drain\Small_Signal_Analysis_Common_Drain.asc
Start Time: Tue Feb 25 16:01:08 2025
solver = Normal
Maximum thread count: 16



.OP point found by inspection.
.step gm=0.02



.step gm=0.04



.step gm=0.06



.step gm=0.08
tnom = 27
temp = 27
method = modified trap
.step gm=0.1
Total elapsed time: 0.226 seconds.

